Circuit: * C:\Users\Michael\Desktop\FSAE\Precharge\Spice Sims\precharge_400V_1600uF.asc

.OP point found by inspection.

Date: Thu Mar 05 09:14:38 2020
Total elapsed time: 0.026 seconds.

tnom = 27
temp = 27
method = modified trap
totiter = 2140
traniter = 2140
tranpoints = 1071
accept = 1065
rejected = 6
matrix size = 4
fillins = 0
solver = Normal
Matrix Compiler1: 64 bytes object code size  0.0/0.0/[0.0]
Matrix Compiler2: 254 bytes object code size  0.0/0.0/[0.0]

