Circuit: * C:\Users\Michael\Desktop\FSAE\Precharge\Simulations\delay simulation.asc

Direct Newton iteration for .op point succeeded.

Date: Mon Jan 27 10:56:45 2020
Total elapsed time: 0.249 seconds.

tnom = 27
temp = 27
method = modified trap
totiter = 5017
traniter = 4980
tranpoints = 1632
accept = 1478
rejected = 154
matrix size = 85
fillins = 47
solver = Normal
Matrix Compiler1: 7.96 KB object code size  2.0/1.3/[0.6]
Matrix Compiler2: 8.20 KB object code size  0.9/1.8/[0.5]

