Circuit: * C:\Users\Michael\Desktop\FSAE\Precharge\Simulations\delay simulation.asc

Direct Newton iteration failed to find .op point.  (Use ".option noopiter" to skip.)
Starting Gmin stepping
Gmin = 10
Gmin = 1.07374
Gmin = 0.115292
Gmin = 0.0123794
Gmin = 0.00132923
vernier = 0.5
Gmin = 0.000339899
vernier = 0.666667
vernier = 0.888888
Gmin = 6.56245e-005
vernier = 1
Gmin = 7.53781e-006
vernier = 0.5
vernier = 0.25
vernier = 0.125
Gmin = 3.41867e-006
vernier = 0.0625
vernier = 0.0833333
Gmin = 2.91321e-006
vernier = 0.111111
vernier = 0.148148
Gmin = 2.20535e-006
vernier = 0.197531
Gmin = 1.4279e-006
vernier = 0.263374
vernier = 0.351165
Gmin = 6.95591e-007
vernier = 0.46822
vernier = 0.624294
Gmin = 2.26383e-007
vernier = 0.832392
Gmin = 4.07652e-008
vernier = 1
Gmin = 4.37713e-009
Gmin = 4.69991e-010
Gmin = 5.04649e-011
Gmin = 5.41863e-012
Gmin = 5.81821e-013
Gmin = 0
Gmin stepping succeeded in finding the operating point.


Date: Wed Jan 29 12:32:04 2020
Total elapsed time: 0.444 seconds.

tnom = 27
temp = 27
method = modified trap
totiter = 8727
traniter = 7597
tranpoints = 2603
accept = 2187
rejected = 416
matrix size = 58
fillins = 87
solver = Normal
Thread vector: 20.8/13.2[6] 9.1/6.6[4] 2.0/2.3[1] 0.3/1.6[1]  2592/500
Matrix Compiler1: 10.47 KB object code size  3.2/1.4/[0.9]
Matrix Compiler2: 7.81 KB object code size  1.5/2.1/[0.6]

